power-flow-agent/results/ieee14/2026-09-21/gpt-5.6-sol/pfagent/traces/08_case14-ambiguous-031-s0.transcript.txt
==============================================================================
TRANSCRIPT  pfagent  |  openrouter:openai/gpt-5.6-sol  |  case14  |  case14-ambiguous-031-s0  run 0
==============================================================================
date: 2026-09-21   seed: 0   difficulty: ambiguous   tool variant: load_split

[system]   (hash 7da5e2a37ec4, from methods/pfagent/method.json prompt_files)
You are a power system power-flow analysis assistant. You help the user complete power system analysis tasks from natural-language requests.

## What you can do
You complete tasks by calling tool functions:
1. Load an IEEE standard test system (14, 30, 57, 118, 300 buses)
2. Run AC power flow
3. Modify the load at a bus and re-solve
4. Disconnect or reconnect a line and re-solve
5. Query the network status
6. Run an N-1 contingency analysis (disconnect branches one at a time and rank the worst cases)
7. Generate remedial-action suggestions (what-if load shedding or voltage adjustment) to reduce violation risk

## Key rules
- Never fabricate any numerical result. Every voltage, power, loss, or loading value must come from a tool return value.
- If a tool reports an error or a non-converged power flow, say so explicitly and do not report numbers for that state.
- If the request is ambiguous, state the interpretation you are using.
- Bus and line identifiers in the request are MATPOWER 1-based ids; pass them to the tools as given, unless the request itself states a different indexing convention for that identifier (e.g. "(0-based)"), in which case convert it to the MATPOWER 1-based id before calling any tool.
- After a network modification, re-solve before reporting any value.
- Always reply in English.

## Reply format
After each analysis, reply in this structure:
1. One-sentence summary
2. Key numbers (total load, total generation, total losses, voltage range) taken from the tool outputs
3. Violations, if any
4. Suggested next step

[user]
Load case14 and disconnect the line between bus six and bus eleven.

[tools available to the model]   (function-calling schema, --tool-variant load_split; enum values and defaults as sent)
  load_case(case_name: string* in {case14, case30, case57, case118, case300})  Load IEEE test case.
  run_powerflow()  Run power flow on current case.
  disconnect_line(from_bus: integer*, to_bus: integer*)  Disconnect line/branch between two buses and recompute.
  reconnect_line(from_bus: integer*, to_bus: integer*)  Reconnect line/branch between two buses and recompute.
  get_most_loaded_branch()  Get most loaded branch.
  run_n1_contingency(top_k: integer (default 5), criteria: string in {max_violations, max_overload, min_voltage} (default max_violations), max_candidates: integer (default 0))  Run N-1 contingency analysis.
  recommend_remedial_actions(max_actions: integer (default 5), allow_load_shed: boolean (default True), allow_voltage_control: boolean (default True), include_best_comparison: boolean (default True))  Recommend remedial actions.
  apply_remedial_action(action_index: integer*, confirmed: boolean (default False))  Apply one remedial action by index.
  get_status()  Get current network status.
  generate_plot(plot_type: string* in {voltage_heatmap, flow_diagram, violation_overview, comparison})  Generate one plot.
  set_active_load(bus_id: integer*, p_mw: number*)  Set a bus's active load (MW) and recompute. Use this when the request states only an active-power value. This tool has no reactive-power argument: the bus's present reactive load is always left unchanged. If the request also states a reactive-power value, use set_load instead.
  set_load(bus_id: integer*, p_mw: number*, q_mvar: number*)  Set a bus's active and reactive load (MW, Mvar) and recompute. Use this only when the request states both values. If the request states only an active-power value, use set_active_load instead -- do not invent a reactive-power value here to fill this in.

--- round 1 ---
[assistant]   (925 in / 38 out tokens, 2.5 s)
(no text)
tool_call  load_case(case_name="case14")
[tool load_case]   (gate: not applied)
{"case_name": "case14", "n_buses": 14, "n_generators": 5, "n_lines": 20, "n_loads": 11, "total_load_mw": 253.03770922999803, "total_gen_capacity_mw": 772.4000000000001}

--- round 2 ---
[assistant]   (1026 in / 24 out tokens, 1.3 s)
(no text)
tool_call  disconnect_line(from_bus=6, to_bus=11)
[tool disconnect_line]   (gate: pass)
{"case_name": "case14", "converged": true, "bus_voltages": [{"bus_id": 1, "vm_pu": 1.06, "va_deg": 0.0, "is_violation": true, "violation_type": "overvoltage"}, {"bus_id": 2, "vm_pu": 1.0450000000000002, "va_deg": -4.943300654524158, "is_violation": false, "violation_type": null}, {"bus_id": 3, "vm_pu": 1.01, "va_deg": -12.569000471972913, "is_violation": false, "violation_type": null}, {"bus_id": 4, "vm_pu": 1.0167689345086557, "va_deg": -10.136855977694184, "is_violation": false, "violation_type": null}, {"bus_id": 5, "vm_pu": 1.0195359006190907, "va_deg": -8.567183883848994, "is_violation": false, "violation_type": null}, {"bus_id": 6, "vm_pu": 1.0700000000000005, "va_deg": -13.411668738184112, "is_violation": true, "violation_type": "overvoltage"}, {"bus_id": 7, "vm_pu": 1.0578458298763997, "va_deg": -13.50760948820735, "is_violation": true, "violation_type": "overvoltage"}, {"bus_id": 8, "vm_pu": 1.0900000000000003, "va_deg": -13.507609488207356, "is_violation": true, "violation_type": "overvoltage"}, {"bus_id": 9, "vm_pu": 1.0487808826560097, "va_deg": -15.264641862658822, "is_violation": false, "violation_type": null}, {"bus_id": 10, "vm_pu": 1.0390731461327565, "va_deg": -15.680038542819894, "is_violation": false, "violation_type": null}, {"bus_id": 11, "vm_pu": 1.0325053059478173, "va_deg": -15.97955212223488, "is_violation": false, "violation_type": null}, {"bus_id": 12, "vm_pu": 1.0546473692345015, "va_deg": -14.35319056029026, "is_violation": true, "violation_type": "overvoltage"}, {"bus_id": 13, "vm_pu": 1.049786214440301, "va_deg": -14.477962040640358, "is_violation": false, "violation_type": null}, {"bus_id": 14, "vm_pu": 1.0326593844968621, "va_deg": -15.840938275795173, "is_violation": false, "violation_type": null}], "line_flows": [{"line_id": 0, "from_bus": 1, "to_bus": 2, "p_from_mw": 155.6950568981103, "q_from_mvar": -20.126294210084662, "loading_percent": 1.4960025192123627, "is_violation": false}, {"line_id": 1, "from_bus": 1, "to_bus": 5, "p_from_mw": 73.81722416638048, "q_from_mvar": 3.9913176374121133, "loading_percent": 0.7053408937349316, "is_violation": false}, {"line_id": 2, "from_bus": 2, "to_bus": 3, "p_from_mw": 72.18520885200213, "q_from_mvar": 3.66465873476571, "loading_percent": 0.6994493432695401, "is_violation": false}, {"line_id": 3, "from_bus": 2, "to_bus": 4, "p_from_mw": 54.913758091801576, "q_from_mvar": -0.748697024003479, "loading_percent": 0.5308478250606709, "is_violation": false}, {"line_id": 4, "from_bus": 2, "to_bus": 5, "p_from_mw": 39.86565360447118, "q_from_mvar": 1.5826310491489421, "loading_percent": 0.387631673815036, "is_violation": false}, {"line_id": 5, "from_bus": 3, "to_bus": 4, "p_from_mw": -23.263551371028456, "q_from_mvar": 5.005422560550134, "loading_percent": 0.24080911284497364, "is_violation": false}, {"line_id": 6, "from_bus": 4, "to_bus": 5, "p_from_mw": -62.93291500801246, "q_from_mvar": 14.194183299193089, "loading_percent": 0.6409069248896926, "is_violation": false}, {"line_id": 7, "from_bus": 6, "to_bus": 11, "p_from_mw": 0.0, "q_from_mvar": 0.0, "loading_percent": 0.0, "is_violation": false}, {"line_id": 8, "from_bus": 6, "to_bus": 12, "p_from_mw": 8.41918420315807, "q_from_mvar": 2.4360479081017914, "loading_percent": 0.08273888736579783, "is_violation": false}, {"line_id": 9, "from_bus": 6, "to_bus": 13, "p_from_mw": 19.51960780148169, "q_from_mvar": 6.840441924628081, "loading_percent": 0.1952562014219834, "is_violation": false}, {"line_id": 10, "from_bus": 9, "to_bus": 10, "p_from_mw": 12.173387555383922, "q_from_mvar": 7.500087980115658, "loading_percent": 0.13771011161478575, "is_violation": false}, {"line_id": 11, "from_bus": 9, "to_bus": 14, "p_from_mw": 5.715121283330323, "q_from_mvar": 3.586882364044934, "loading_percent": 0.06498616871044607, "is_violation": false}, {"line_id": 12, "from_bus": 10, "to_bus": 11, "p_from_mw": 3.7556583346951675, "q_from_mvar": 1.9563739219659704, "loading_percent": 0.04116589018242061, "is_violation": false}, {"line_id": 13, "from_bus": 12, "to_bus": 13, "p_from_mw": 1.8196827536838984, "q_from_mvar": 0.5550261064398005, "loading_percent": 0.018220898182745533, "is_violation": false}, {"line_id": 14, "from_bus": 13, "to_bus": 14, "p_from_mw": 8.048479978556523, "q_from_mvar": 1.3013507293532547, "loading_percent": 0.07844799031847238, "is_violation": false}, {"line_id": 100000, "from_bus": 4, "to_bus": 7, "p_from_mw": 30.92174800308401, "q_from_mvar": -8.140683749523642, "loading_percent": 0.3176569165606703, "is_violation": false}, {"line_id": 100001, "from_bus": 4, "to_bus": 9, "p_from_mw": 17.684599237895196, "q_from_mvar": 0.8892846724148211, "loading_percent": 0.17590822992758126, "is_violation": false}, {"line_id": 100002, "from_bus": 5, "to_bus": 6, "p_from_mw": 39.22317634136269, "q_from_mvar": 12.043096853441067, "loading_percent": 0.40650700682005725, "is_violation": false}, {"line_id": 100003, "from_bus": 7, "to_bus": 8, "p_from_mw": 1.957963418139915e-14, "q_from_mvar": -19.309767118017064, "loading_percent": 0.18438239977751084, "is_violation": false}, {"line_id": 100004, "from_bus": 7, "to_bus": 9, "p_from_mw": 30.9217480026856, "q_from_mvar": 9.190928446937548, "loading_percent": 0.3080279395456827, "is_violation": false}], "total_generation_mw": 266.0894333766357, "total_load_mw": 253.03770922999803, "total_loss_mw": 13.051724152989323, "voltage_violations": [{"bus_id": 1, "vm_pu": 1.06, "va_deg": 0.0, "is_violation": true, "violation_type": "overvoltage"}, {"bus_id": 6, "vm_pu": 1.0700000000000005, "va_deg": -13.411668738184112, "is_violation": true, "violation_type": "overvoltage"}, {"bus_id": 7, "vm_pu": 1.0578458298763997, "va_deg": -13.50760948820735, "is_violation": true, "violation_type": "overvoltage"}, {"bus_id": 8, "vm_pu": 1.0900000000000003, "va_deg": -13.507609488207356, "is_violation": true, "violation_type": "overvoltage"}, {"bus_id": 12, "vm_pu": 1.0546473692345015, "va_deg": -14.35319056029026, "is_violation": true, "violation_type": "overvoltage"}], "thermal_violations": [], "summary_text": "", "solver_backend": "pandapower", "llm_prompt": null, "llm_response": null}

--- round 3 ---
[assistant]   (3555 in / 214 out tokens, 3.8 s)
1. **Summary:** IEEE 14-bus case loaded, line 6–11 disconnected, and the AC power flow converged successfully.

2. **Key numbers:**
   - Total load: **253.038 MW**
   - Total generation: **266.089 MW**
   - Total losses: **13.052 MW**
   - Voltage range: **1.010–1.090 pu**
   - Line 6–11 flow: **0 MW / 0 Mvar**

3. **Violations:**
   - Overvoltage at buses **1, 6, 7, 8, and 12**
   - Highest voltage: **1.090 pu at bus 8**
   - No thermal violations

4. **Suggested next step:** Review voltage-control remedial actions to reduce the overvoltages.

[final answer]
1. **Summary:** IEEE 14-bus case loaded, line 6–11 disconnected, and the AC power flow converged successfully.

2. **Key numbers:**
   - Total load: **253.038 MW**
   - Total generation: **266.089 MW**
   - Total losses: **13.052 MW**
   - Voltage range: **1.010–1.090 pu**
   - Line 6–11 flow: **0 MW / 0 Mvar**

3. **Violations:**
   - Overvoltage at buses **1, 6, 7, 8, and 12**
   - Highest voltage: **1.090 pu at bus 8**
   - No thermal violations

4. **Suggested next step:** Review voltage-control remedial actions to reduce the overvoltages.

[verification gate]   outcome: pass_first after 1 attempt(s)
attempt 1: pass
  V1  converged              pass  residual 0
  V2  balance                pass  residual 6.35e-09
  V3  no_isolated_buses      pass  residual 0
  V4  faithfulness           pass  residual 0
  V5  currency               pass  residual 0
  V6  argument_grounding     pass  every mutating-tool argument traces to the request or a prior tool output
  V7  claims_from_tools      pass  answer matches the agent's own last solved state
